ieee.odm.test/testdata/psse/json/ieee9_output.rawx
{
  "general": {
    "version": "36.1"
  },
  "network": {
    "caseid": {
      "fields": [
        "ic",
        "sbase",
        "rev",
        "xfrrat",
        "nxfrat",
        "basfrq",
        "title1",
        "title2"
      ],
      "data": [
        0,
        100.0,
        36,
        0,
        1,
        50.0,
        "\u002700/00/01                      100.0  0    0\u0027",
        "\u00270\u0027"
      ]
    },
    "bus": {
      "fields": [
        "ibus",
        "name",
        "baskv",
        "ide",
        "area",
        "zone",
        "owner",
        "vm",
        "va",
        "nvhi",
        "nvlo",
        "evhi",
        "evlo"
      ],
      "data": [
        [
          1,
          "BUS-1",
          16.5,
          3,
          1,
          1,
          1,
          1.04,
          0.0,
          1.1,
          0.9,
          1.1,
          0.9
        ],
        [
          2,
          "BUS-2",
          18.0,
          2,
          1,
          1,
          1,
          1.025,
          9.28,
          1.1,
          0.9,
          1.1,
          0.9
        ],
        [
          3,
          "BUS-3",
          13.8,
          2,
          1,
          1,
          1,
          1.025,
          4.66,
          1.1,
          0.9,
          1.1,
          0.9
        ],
        [
          4,
          "BUS-4",
          230.0,
          1,
          1,
          1,
          1,
          1.025,
          -2.22,
          1.1,
          0.9,
          1.1,
          0.9
        ],
        [
          5,
          "BUS-5",
          230.0,
          1,
          1,
          1,
          1,
          0.995,
          -3.99,
          1.1,
          0.9,
          1.1,
          0.9
        ],
        [
          6,
          "BUS-6",
          230.0,
          1,
          1,
          1,
          1,
          1.012,
          -3.69,
          1.1,
          0.9,
          1.1,
          0.9
        ],
        [
          7,
          "BUS-7",
          230.0,
          1,
          1,
          1,
          1,
          1.025,
          3.72,
          1.1,
          0.9,
          1.1,
          0.9
        ],
        [
          8,
          "BUS-8",
          230.0,
          1,
          1,
          1,
          1,
          1.015,
          0.73,
          1.1,
          0.9,
          1.1,
          0.9
        ],
        [
          9,
          "BUS-9",
          230.0,
          1,
          1,
          1,
          1,
          1.032,
          1.97,
          1.1,
          0.9,
          1.1,
          0.9
        ]
      ]
    },
    "load": {
      "fields": [
        "ibus",
        "loadid",
        "stat",
        "area",
        "zone",
        "pl",
        "ql",
        "ip",
        "iq",
        "yp",
        "yq",
        "owner",
        "scale",
        "intrpt",
        "dgenp",
        "dgenq",
        "dgenf",
        "loadtype",
        "n a m e"
      ],
      "data": [
        [
          5,
          "1",
          1,
          1,
          1,
          125.0,
          50.0,
          0.0,
          0.0,
          0.0,
          0.0,
          1,
          1,
          0,
          0.0,
          0.0,
          0,
          "",
          ""
        ],
        [
          6,
          "1",
          1,
          1,
          1,
          90.0,
          30.0,
          0.0,
          0.0,
          0.0,
          0.0,
          1,
          1,
          0,
          0.0,
          0.0,
          0,
          "",
          ""
        ],
        [
          8,
          "1",
          1,
          1,
          1,
          100.0,
          35.0,
          0.0,
          0.0,
          0.0,
          0.0,
          1,
          1,
          0,
          0.0,
          0.0,
          0,
          "",
          ""
        ]
      ]
    },
    "fixshunt": {
      "fields": [
        "ibus",
        "shntid",
        "stat",
        "gl",
        "bl",
        "n a m e"
      ],
      "data": []
    },
    "voltagedroop": {
      "fields": [
        "name",
        "status",
        "regbus",
        "qdb",
        "qmin",
        "qmax",
        "vdblow",
        "vdbhigh",
        "vlow",
        "vhigh"
      ],
      "data": []
    },
    "generator": {
      "fields": [
        "ibus",
        "machid",
        "pg",
        "qg",
        "qt",
        "qb",
        "vs",
        "ireg",
        "nreg",
        "mbase",
        "zr",
        "zx",
        "rt",
        "xt",
        "gtap",
        "stat",
        "rmpct",
        "pt",
        "pb",
        "baslod",
        "o1",
        "f1",
        "o2",
        "f2",
        "o3",
        "f3",
        "o4",
        "f4",
        "wmod",
        "wpf",
        "droopname",
        "n a m e"
      ],
      "data": [
        [
          1,
          "1",
          71.64,
          27.05,
          9999.0,
          -9999.0,
          1.04,
          1,
          0,
          100.0,
          0.0,
          0.04,
          0.0,
          0.0,
          1.0,
          1,
          100.0,
          9999.0,
          -9999.0,
          0,
          1,
          1.0,
          null,
          null,
          null,
          null,
          null,
          null,
          null,
          null,
          null,
          null
        ],
        [
          2,
          "1",
          163.0,
          6.65,
          9999.0,
          -9999.0,
          1.025,
          2,
          0,
          100.0,
          0.0,
          0.089,
          0.0,
          0.0,
          1.0,
          1,
          100.0,
          9999.0,
          -9999.0,
          0,
          1,
          1.0,
          null,
          null,
          null,
          null,
          null,
          null,
          null,
          null,
          null,
          null
        ],
        [
          3,
          "1",
          85.0,
          -10.86,
          99990.0,
          -99990.0,
          1.025,
          3,
          0,
          100.0,
          0.0,
          0.107,
          0.0,
          0.0,
          1.0,
          1,
          100.0,
          9999.0,
          -9999.0,
          0,
          1,
          1.0,
          null,
          null,
          null,
          null,
          null,
          null,
          null,
          null,
          null,
          null
        ]
      ]
    },
    "swdratset": {
      "fields": [
        "name",
        "description",
        "rate1",
        "rate2",
        "rate3",
        "rate4",
        "rate5",
        "rate6",
        "rate7",
        "rate8",
        "rate9",
        "rate10",
        "rate11",
        "rate12"
      ],
      "data": []
    },
    "acline": {
      "fields": [
        "ibus",
        "jbus",
        "ckt",
        "rpu",
        "xpu",
        "bpu",
        "name",
        "rate1",
        "rate2",
        "rate3",
        "rate4",
        "rate5",
        "rate6",
        "rate7",
        "rate8",
        "rate9",
        "rate10",
        "rate11",
        "rate12",
        "gi",
        "bi",
        "gj",
        "bj",
        "stat",
        "met",
        "len",
        "o1",
        "f1",
        "o2",
        "f2",
        "o3",
        "f3",
        "o4",
        "f4"
      ],
      "data": [
        [
          4,
          5,
          "0",
          0.01,
          0.085,
          0.176,
          "",
          0.0,
          0.0,
          0.0,
          0.0,
          0.0,
          0.0,
          0.0,
          0.0,
          0.0,
          0.0,
          0.0,
          0.0,
          0.0,
          0.0,
          0.0,
          0.0,
          1,
          0,
          2,
          0.0,
          1,
          1.0,
          null,
          null,
          null,
          null,
          null
        ],
        [
          4,
          6,
          "0",
          0.017,
          0.092,
          0.158,
          "",
          0.0,
          0.0,
          0.0,
          0.0,
          0.0,
          0.0,
          0.0,
          0.0,
          0.0,
          0.0,
          0.0,
          0.0,
          0.0,
          0.0,
          0.0,
          0.0,
          1,
          0,
          2,
          0.0,
          1,
          1.0,
          null,
          null,
          null,
          null,
          null
        ],
        [
          5,
          7,
          "0",
          0.032,
          0.161,
          0.306,
          "",
          0.0,
          0.0,
          0.0,
          0.0,
          0.0,
          0.0,
          0.0,
          0.0,
          0.0,
          0.0,
          0.0,
          0.0,
          0.0,
          0.0,
          0.0,
          0.0,
          1,
          0,
          2,
          0.0,
          1,
          1.0,
          null,
          null,
          null,
          null,
          null
        ],
        [
          6,
          9,
          "0",
          0.039,
          0.17,
          0.358,
          "",
          0.0,
          0.0,
          0.0,
          0.0,
          0.0,
          0.0,
          0.0,
          0.0,
          0.0,
          0.0,
          0.0,
          0.0,
          0.0,
          0.0,
          0.0,
          0.0,
          1,
          0,
          2,
          0.0,
          1,
          1.0,
          null,
          null,
          null,
          null,
          null
        ],
        [
          7,
          8,
          "0",
          0.0085,
          0.072,
          0.149,
          "",
          0.0,
          0.0,
          0.0,
          0.0,
          0.0,
          0.0,
          0.0,
          0.0,
          0.0,
          0.0,
          0.0,
          0.0,
          0.0,
          0.0,
          0.0,
          0.0,
          1,
          0,
          1,
          0.0,
          1,
          1.0,
          null,
          null,
          null,
          null,
          null
        ],
        [
          8,
          9,
          "0",
          0.0119,
          0.1008,
          0.209,
          "",
          0.0,
          0.0,
          0.0,
          0.0,
          0.0,
          0.0,
          0.0,
          0.0,
          0.0,
          0.0,
          0.0,
          0.0,
          0.0,
          0.0,
          0.0,
          0.0,
          1,
          0,
          2,
          0.0,
          1,
          1.0,
          null,
          null,
          null,
          null,
          null
        ]
      ]
    },
    "sysswd": {
      "fields": [
        "ibus",
        "jbus",
        "ckt",
        "xpu",
        "ratingsetname",
        "stat",
        "nstat",
        "met",
        "stype",
        "name"
      ],
      "data": []
    },
    "transformer": {
      "fields": [
        "ibus",
        "jbus",
        "kbus",
        "ckt",
        "cw",
        "cz",
        "cm",
        "mag1",
        "mag2",
        "nmetr",
        "name",
        "stat",
        "o1",
        "f1",
        "o2",
        "f2",
        "o3",
        "f3",
        "o4",
        "f4",
        "vecgrp",
        "zcod",
        "r1_2",
        "x1_2",
        "sbase1_2",
        "r2_3",
        "x2_3",
        "sbase2_3",
        "r3_1",
        "x3_1",
        "sbase3_1",
        "vmstar",
        "anstar",
        "windv1",
        "nomv1",
        "ang1",
        "wdg1rate1",
        "wdg1rate2",
        "wdg1rate3",
        "wdg1rate4",
        "wdg1rate5",
        "wdg1rate6",
        "wdg1rate7",
        "wdg1rate8",
        "wdg1rate9",
        "wdg1rate10",
        "wdg1rate11",
        "wdg1rate12",
        "cod1",
        "cont1",
        "nod1",
        "rma1",
        "rmi1",
        "vma1",
        "vmi1",
        "ntp1",
        "tab1",
        "cr1",
        "cx1",
        "cnxa1",
        "windv2",
        "nomv2",
        "ang2",
        "wdg2rate1",
        "wdg2rate2",
        "wdg2rate3",
        "wdg2rate4",
        "wdg2rate5",
        "wdg2rate6",
        "wdg2rate7",
        "wdg2rate8",
        "wdg2rate9",
        "wdg2rate10",
        "wdg2rate11",
        "wdg2rate12",
        "cod2",
        "cont2",
        "nod2",
        "rma2",
        "rmi2",
        "vma2",
        "vmi2",
        "ntp2",
        "tab2",
        "cr2",
        "cx2",
        "cnxa2",
        "windv3",
        "nomv3",
        "ang3",
        "wdg3rate1",
        "wdg3rate2",
        "wdg3rate3",
        "wdg3rate4",
        "wdg3rate5",
        "wdg3rate6",
        "wdg3rate7",
        "wdg3rate8",
        "wdg3rate9",
        "wdg3rate10",
        "wdg3rate11",
        "wdg3rate12",
        "cod3",
        "cont3",
        "nod3",
        "rma3",
        "rmi3",
        "vma3",
        "vmi3",
        "ntp3",
        "tab3",
        "cr3",
        "cx3",
        "cnxa3"
      ],
      "data": [
        [
          1,
          4,
          0,
          "1",
          1,
          1,
          1,
          0.0,
          0.0,
          2,
          "GEN1_TO_BUS1_CIRID_1",
          1,
          1,
          1.0,
          0,
          1.0,
          0,
          1.0,
          0,
          1.0,
          "",
          0.0,
          0.0567,
          100.0,
          1.0,
          16.5,
          0.0,
          0.0,
          0.0,
          0.0,
          0.0,
          0.0,
          0.0,
          0.0,
          0.0,
          0.0,
          0.0,
          0.0,
          0.0,
          0,
          0,
          0,
          1.1,
          0.9,
          1.1,
          0.9,
          33,
          0,
          0.0,
          0.0,
          0.0,
          1.0,
          230.0,
          "",
          null,
          null,
          null,
          null,
          null,
          null,
          null,
          null,
          null,
          null,
          null,
          null,
          null,
          null,
          null,
          null,
          null,
          null,
          null,
          null,
          null,
          null,
          null,
          null,
          null,
          null,
          null,
          null,
          null,
          null,
          null,
          null,
          null,
          null,
          null,
          null,
          null,
          null,
          null,
          null,
          null,
          null,
          null,
          null,
          null,
          null,
          null,
          null,
          null,
          null,
          null,
          null,
          null,
          null,
          null,
          null,
          null,
          null,
          null,
          null
        ],
        [
          2,
          7,
          0,
          "1",
          1,
          1,
          1,
          0.0,
          0.0,
          2,
          "GEN2_TO_BUS2_CIRID_1",
          1,
          1,
          1.0,
          0,
          1.0,
          0,
          1.0,
          0,
          1.0,
          "",
          0.0,
          0.0625,
          100.0,
          1.0,
          18.0,
          0.0,
          0.0,
          0.0,
          0.0,
          0.0,
          0.0,
          0.0,
          0.0,
          0.0,
          0.0,
          0.0,
          0.0,
          0.0,
          0,
          0,
          0,
          1.1,
          0.9,
          1.1,
          0.9,
          33,
          0,
          0.0,
          0.0,
          0.0,
          1.0,
          230.0,
          "",
          null,
          null,
          null,
          null,
          null,
          null,
          null,
          null,
          null,
          null,
          null,
          null,
          null,
          null,
          null,
          null,
          null,
          null,
          null,
          null,
          null,
          null,
          null,
          null,
          null,
          null,
          null,
          null,
          null,
          null,
          null,
          null,
          null,
          null,
          null,
          null,
          null,
          null,
          null,
          null,
          null,
          null,
          null,
          null,
          null,
          null,
          null,
          null,
          null,
          null,
          null,
          null,
          null,
          null,
          null,
          null,
          null,
          null,
          null,
          null
        ],
        [
          3,
          9,
          0,
          "1",
          1,
          1,
          1,
          0.0,
          0.0,
          2,
          "GEN3_TO_BUS3_CIRID_1",
          1,
          1,
          1.0,
          0,
          1.0,
          0,
          1.0,
          0,
          1.0,
          "",
          0.0,
          0.0586,
          100.0,
          1.0,
          13.8,
          0.0,
          0.0,
          0.0,
          0.0,
          0.0,
          0.0,
          0.0,
          0.0,
          0.0,
          0.0,
          0.0,
          0.0,
          0.0,
          0,
          0,
          0,
          1.1,
          0.9,
          1.1,
          0.9,
          33,
          0,
          0.0,
          0.0,
          0.0,
          1.0,
          230.0,
          "",
          null,
          null,
          null,
          null,
          null,
          null,
          null,
          null,
          null,
          null,
          null,
          null,
          null,
          null,
          null,
          null,
          null,
          null,
          null,
          null,
          null,
          null,
          null,
          null,
          null,
          null,
          null,
          null,
          null,
          null,
          null,
          null,
          null,
          null,
          null,
          null,
          null,
          null,
          null,
          null,
          null,
          null,
          null,
          null,
          null,
          null,
          null,
          null,
          null,
          null,
          null,
          null,
          null,
          null,
          null,
          null,
          null,
          null,
          null,
          null
        ]
      ]
    },
    "area": {
      "fields": [
        "ibus",
        "isw",
        "pdes",
        "ptol",
        "arname"
      ],
      "data": []
    },
    "twotermdc": {
      "fields": [
        "name",
        "mdc",
        "rdc",
        "setvl",
        "vschd",
        "vcmod",
        "rcomp",
        "delti",
        "meterdcvmin",
        "cccitmx",
        "cccacc",
        "ipr",
        "nbr",
        "anmxr",
        "anmnr",
        "rcr",
        "xcr",
        "ebasr",
        "trr",
        "tapr",
        "tmxr",
        "tmnr",
        "stpr",
        "icr",
        "ndr",
        "ifr",
        "itr",
        "idr",
        "xcapr",
        "ipi",
        "nbi",
        "anmxi",
        "anmni",
        "rci",
        "xci",
        "ebasi",
        "tri",
        "tapi",
        "tmxi",
        "tmni",
        "stpi",
        "ici",
        "ndi",
        "ifi",
        "iti",
        "idi",
        "xcapi"
      ],
      "data": []
    },
    "vscdc": {
      "fields": [
        "name",
        "mdc",
        "rdc",
        "o1",
        "f1",
        "o2",
        "f2",
        "o3",
        "f3",
        "o4",
        "f4",
        "ibus",
        "type",
        "mode",
        "dcset",
        "acset",
        "aloss",
        "bloss",
        "minloss",
        "smax",
        "imax",
        "pwf",
        "maxq",
        "minq",
        "vsreg",
        "nreg",
        "rmpct"
      ],
      "data": []
    },
    "impcor": {
      "fields": [
        "ibus",
        "t1",
        "re(f1)",
        "im(f1)",
        "t2",
        "re(f2)",
        "im(f2)",
        "t3",
        "re(f3)",
        "im(f3)",
        "t4",
        "re(f4)",
        "im(f4)",
        "t5",
        "re(f5)",
        "im(f5)",
        "t6",
        "re(f6)",
        "im(f6)",
        "t7",
        "re(f7)",
        "im(f7)",
        "t8",
        "re(f8)",
        "im(f8)",
        "t9",
        "re(f9)",
        "im(f9)",
        "t10",
        "re(f10)",
        "im(f10)",
        "t11",
        "re(f11)",
        "im(f11)",
        "t12",
        "re(f12)",
        "im(f12)",
        "..."
      ],
      "data": []
    },
    "ntermdc": {
      "fields": [
        "name",
        "nconv",
        "ndcbs",
        "ndcln",
        "mdc",
        "vconv",
        "vcmod",
        "vconvn",
        "ib",
        "n",
        "angmx",
        "angmn",
        "rc",
        "xc",
        "ebas",
        "tr",
        "tap",
        "tpmx",
        "tpmn",
        "tstp",
        "setvl",
        "dcpf",
        "marg",
        "cnvcod",
        "idc",
        "ib",
        "area",
        "zone",
        "dcname",
        "idc2",
        "rgrnd",
        "owner",
        "idc",
        "jdc",
        "dcckt",
        "met",
        "rdc",
        "ldc"
      ],
      "data": []
    },
    "msline": {
      "fields": [
        "ibus",
        "jbus",
        "id",
        "met",
        "dum1",
        "dum2",
        "dum3",
        "dum4",
        "dum5",
        "dum6",
        "dum7",
        "dum8",
        "dum9"
      ],
      "data": []
    },
    "zone": {
      "fields": [
        "ibus",
        "zoname"
      ],
      "data": []
    },
    "iatrans": {
      "fields": [
        "arfrom",
        "arto",
        "trid",
        "ptran"
      ],
      "data": []
    },
    "owner": {
      "fields": [
        "ibus",
        "owname"
      ],
      "data": []
    },
    "facts": {
      "fields": [
        "name",
        "ibus",
        "jbus",
        "mode",
        "pdes",
        "qdes",
        "vset",
        "shmx",
        "trmx",
        "vtmn",
        "vtmx",
        "vsmx",
        "imx",
        "linx",
        "rmpct",
        "owner",
        "set1",
        "set2",
        "vsref",
        "fcreg",
        "nreg",
        "mname"
      ],
      "data": []
    },
    "swshunt": {
      "fields": [
        "ibus",
        "id",
        "modsw",
        "adjm",
        "stat",
        "vswhi",
        "vswlo",
        "swreg",
        "nreg",
        "rmpct",
        "rmidnt",
        "binit",
        "name",
        "s1",
        "n1",
        "b1",
        "s2",
        "n2",
        "b2",
        "s3",
        "n3",
        "b3",
        "s4",
        "n4",
        "b4",
        "s5",
        "n5",
        "b5",
        "s6",
        "n6",
        "b6",
        "s7",
        "n7",
        "b7",
        "s8",
        "n8",
        "b8"
      ],
      "data": []
    },
    "gne": {
      "fields": [
        "name",
        "model",
        "nterm",
        "bus1...busnterm",
        "nreal",
        "nintg",
        "nchar",
        "stat",
        "owner",
        "nmetr",
        "real1...real(min(10",
        "nreal))",
        "intg1...intg(min(10",
        "nintg))",
        "char1...char(min(10",
        "nchar))"
      ],
      "data": []
    },
    "indmach": {
      "fields": [
        "ibus",
        "id",
        "stat",
        "sc",
        "dc",
        "area",
        "zone",
        "owner",
        "name",
        "tc",
        "bc",
        "mbase",
        "ratekv",
        "pc",
        "pset",
        "h",
        "a",
        "bpu",
        "d",
        "e",
        "ra",
        "xa",
        "xm",
        "r1",
        "x1",
        "r2",
        "x2",
        "x3",
        "e1",
        "se1",
        "e2",
        "se2",
        "ia1",
        "ia2",
        "xamult"
      ],
      "data": []
    },
    "loadtype": {
      "fields": [
        "name",
        "description"
      ],
      "data": []
    },
    "interface": {
      "fields": [
        "name",
        "ibus",
        "type",
        "ratmax1",
        "ratmax2",
        "ratmax3",
        "ratmax4",
        "ratmax5",
        "ratmax6",
        "ratmax7",
        "ratmax8",
        "ratmax9",
        "ratmax10",
        "ratmax11",
        "ratmax12",
        "ratmin1",
        "ratmin2",
        "ratmin3",
        "ratmin4",
        "ratmin5",
        "ratmin6",
        "ratmin7",
        "ratmin8",
        "ratmin9",
        "ratmin10",
        "ratmin11",
        "ratmin12"
      ],
      "data": []
    },
    "itfelmt": {
      "fields": [
        "nametype",
        "ibus",
        "jbus",
        "kbus",
        "devnameid",
        "direction",
        "meter",
        "wf"
      ],
      "data": []
    },
    "sub": {
      "fields": [
        "nametype",
        "ibus",
        "jbus",
        "kbus",
        "devnameid",
        "direction",
        "meter",
        "wf"
      ],
      "data": []
    }
  }
}